<?xml version="1.0" encoding="UTF-8"?>

<!-- generated on 2022-01-27 14:16:52 by Eclipse SUMO netedit Version 1.12.0
-->

<routes>

    
    <vType id="ego" vClass="emergency" maxSpeed="70" speedFactor="1.3" speedDev="0.1" sigma="0.8" tau="1" >
        <param key="has.bluelight.device" value="true" />
    </vType>

    <!--
    <vType id="ego" vClass="passenger" maxSpeed="70" speedFactor="1.3" speedDev="0.1" sigma="0.8" tau="1" />
    -->
    <!--
    <vType id="ego" vClass="passenger" maxSpeed="30" speedFactor="0.9" speedDev="0.1" sigma="0.1" tau="2" color = "0,0,1" />
    -->
    <vType id="cautious" vClass="passenger" maxSpeed="30" speedFactor="0.9" speedDev="0.1" sigma="0.1" tau="2"  />
    <vType id="normal" vClass="passenger"  maxSpeed="50" speedFactor="1" speedDev="0.1" sigma="0.4" tau = "1.5" />
    <vType id="aggressive" vClass="passenger" maxSpeed="70" speedFactor="1.3" speedDev="0.1" sigma="0.8" tau="1" />
    
    <flow id="cautious" type="cautious" number="5" begin="0" end="10" departSpeed="random" departLane="random" >
        <route edges="gneE5 gneE6 -gneE6 -gneE5 gneE5 gneE6 -gneE6 -gneE5 gneE5 gneE6 -gneE6 -gneE5 gneE5 gneE6 -gneE6 -gneE5 gneE5 gneE6 -gneE6 -gneE5 gneE5 gneE6 -gneE6 -gneE5"/>
    </flow>
    <flow id="aggressive" type="aggressive" number="5" begin="0" end="10" departSpeed="random" departLane="random" >
        <route edges="gneE5 gneE6 -gneE6 -gneE5 gneE5 gneE6 -gneE6 -gneE5 gneE5 gneE6 -gneE6 -gneE5 gneE5 gneE6 -gneE6 -gneE5 gneE5 gneE6 -gneE6 -gneE5 gneE5 gneE6 -gneE6 -gneE5"/>
    </flow>
    <flow id="normal" type="normal" number="5" begin="0" end="10" departSpeed="random" departLane="random">
        <route edges="gneE5 gneE6 -gneE6 -gneE5 gneE5 gneE6 -gneE6 -gneE5 gneE5 gneE6 -gneE6 -gneE5 gneE5 gneE6 -gneE6 -gneE5 gneE5 gneE6 -gneE6 -gneE5 gneE5 gneE6 -gneE6 -gneE5"/>
    </flow>
</routes>
