<?xml version="1.0" encoding="UTF-8"?>

<!-- generated on Wed 16 Mar 2022 01:13:42 PM EDT by Eclipse SUMO netedit Version 1.4.0
<configuration xmlns:xsi="http://www.w3.org/2001/XMLSchema-instance" xsi:noNamespaceSchemaLocation="http://sumo.dlr.de/xsd/netconvertConfiguration.xsd">

    <input>
        <sumo-net-file value="/home/cmorse/Desktop/clusters/cluster6/rou/intersection.net%20(copy).xml"/>
    </input>

    <output>
        <output-file value="/home/cmorse/Desktop/clusters/cluster6/rou/intersection.net%20(copy).xml"/>
    </output>

    <processing>
        <geometry.min-radius.fix.railways value="false"/>
        <geometry.max-grade.fix value="false"/>
        <offset.disable-normalization value="true"/>
        <lefthand value="false"/>
    </processing>

    <junctions>
        <no-turnarounds value="true"/>
        <junctions.corner-detail value="5"/>
        <junctions.limit-turn-speed value="5.5"/>
        <rectangular-lane-cut value="false"/>
    </junctions>

    <pedestrian>
        <walkingareas value="false"/>
    </pedestrian>

    <visualisation>
        <registry-viewport value="true"/>
    </visualisation>

    <report>
        <aggregate-warnings value="5"/>
    </report>

</configuration>
-->

<net version="1.3" junctionCornerDetail="5" limitTurnSpeed="5.50" xmlns:xsi="http://www.w3.org/2001/XMLSchema-instance" xsi:noNamespaceSchemaLocation="http://sumo.dlr.de/xsd/net_file.xsd">

    <location netOffset="0.00,0.00" convBoundary="-56.62,-15.23,241.11,57.69" origBoundary="-10000000000.00,-10000000000.00,10000000000.00,10000000000.00" projParameter="!"/>

    <edge id=":gneJ7_0" function="internal">
        <lane id=":gneJ7_0_0" index="0" speed="13.89" length="14.44" shape="98.88,58.17 84.44,58.34"/>
    </edge>
    <edge id=":gneJ7_1" function="internal">
        <lane id=":gneJ7_1_0" index="0" speed="7.99" length="5.98" shape="98.88,58.17 95.01,57.68 93.21,56.64"/>
    </edge>
    <edge id=":gneJ7_6" function="internal">
        <lane id=":gneJ7_6_0" index="0" speed="7.99" length="8.23" shape="93.21,56.64 92.24,56.07 90.55,53.34 89.96,49.49"/>
    </edge>
    <edge id=":gneJ7_2" function="internal">
        <lane id=":gneJ7_2_0" index="0" speed="6.50" length="9.03" shape="93.16,49.46 93.54,51.90 94.61,53.64 96.37,54.66 98.83,54.97"/>
    </edge>
    <edge id=":gneJ7_3" function="internal">
        <lane id=":gneJ7_3_0" index="0" speed="7.99" length="14.21" shape="93.16,49.46 92.65,53.32 91.03,56.09 88.29,57.76 84.44,58.34"/>
    </edge>
    <edge id=":gneJ7_4" function="internal">
        <lane id=":gneJ7_4_0" index="0" speed="6.50" length="9.03" shape="84.42,55.14 86.86,54.77 88.60,53.71 89.64,51.95 89.96,49.49"/>
    </edge>
    <edge id=":gneJ7_5" function="internal">
        <lane id=":gneJ7_5_0" index="0" speed="13.89" length="14.41" shape="84.42,55.14 98.83,54.97"/>
    </edge>

    <edge id="-gneE10" from="gneJ11" to="gneJ7" priority="-1">
        <lane id="-gneE10_0" index="0" speed="13.89" length="64.71" shape="92.44,-15.25 93.16,49.46"/>
    </edge>
    <edge id="-gneE5" from="gneJ7" to="gneJ6" priority="-1">
        <lane id="-gneE5_0" index="0" speed="13.89" length="141.05" shape="84.44,58.34 -56.61,59.29"/>
    </edge>
    <edge id="-gneE6" from="gneJ8" to="gneJ7" priority="-1">
        <lane id="-gneE6_0" index="0" speed="13.89" length="142.27" shape="241.14,55.88 98.88,58.17"/>
    </edge>
    <edge id="gneE10" from="gneJ7" to="gneJ11" priority="-1">
        <lane id="gneE10_0" index="0" speed="13.89" length="64.71" shape="89.96,49.49 89.24,-15.21"/>
    </edge>
    <edge id="gneE5" from="gneJ6" to="gneJ7" priority="-1">
        <lane id="gneE5_0" index="0" speed="13.89" length="141.05" shape="-56.63,56.09 84.42,55.14"/>
    </edge>
    <edge id="gneE6" from="gneJ7" to="gneJ8" priority="-1">
        <lane id="gneE6_0" index="0" speed="13.89" length="142.27" shape="98.83,54.97 241.08,52.68"/>
    </edge>

    <tlLogic id="gneJ7" type="static" programID="0" offset="0">
        <phase duration="42" state="rrrGGgrrrGGg"/>
        <phase duration="3"  state="rrryyyrrryyy"/>
        <phase duration="42" state="GGgrrrGGgrrr"/>
        <phase duration="3"  state="yyyrrryyyrrr"/>
    </tlLogic>

    <junction id="gneJ11" type="dead_end" x="90.84" y="-15.23" incLanes="gneE10_0" intLanes="" shape="90.84,-15.23 87.64,-15.19 90.84,-15.23"/>
    <junction id="gneJ6" type="dead_end" x="-56.62" y="57.69" incLanes="-gneE5_0" intLanes="" shape="-56.62,57.69 -56.60,60.89 -56.62,57.69"/>
    <junction id="gneJ7" type="traffic_light" x="91.64" y="56.69" incLanes="-gneE6_0 -gneE10_0 gneE5_0" intLanes=":gneJ7_0_0 :gneJ7_6_0 :gneJ7_2_0 :gneJ7_3_0 :gneJ7_4_0 :gneJ7_5_0" shape="98.91,59.77 98.80,53.37 96.58,52.97 95.79,52.42 95.23,51.65 94.88,50.66 94.76,49.44 88.36,49.51 87.94,51.74 87.39,52.52 86.62,53.08 85.63,53.42 84.40,53.54 84.45,59.94">
        <request index="0" response="000000" foes="001000" cont="0"/>
        <request index="1" response="110000" foes="111000" cont="1"/>
        <request index="2" response="100000" foes="100000" cont="0"/>
        <request index="3" response="100011" foes="100011" cont="0"/>
        <request index="4" response="000000" foes="000010" cont="0"/>
        <request index="5" response="000000" foes="001110" cont="0"/>
    </junction>
    <junction id="gneJ8" type="dead_end" x="241.11" y="54.28" incLanes="gneE6_0" intLanes="" shape="241.11,54.28 241.06,51.08 241.11,54.28"/>

    <junction id=":gneJ7_6_0" type="internal" x="93.21" y="56.64" incLanes=":gneJ7_1_0 gneE5_0" intLanes=":gneJ7_3_0 :gneJ7_4_0 :gneJ7_5_0"/>

    <connection from="-gneE10" to="gneE6" fromLane="0" toLane="0" via=":gneJ7_2_0" tl="gneJ7" linkIndex="6" dir="r" state="o"/>
    <connection from="-gneE10" to="-gneE5" fromLane="0" toLane="0" via=":gneJ7_3_0" tl="gneJ7" linkIndex="8" dir="l" state="o"/>
    <connection from="-gneE6" to="-gneE5" fromLane="0" toLane="0" via=":gneJ7_0_0" tl="gneJ7" linkIndex="4" dir="s" state="O"/>
    <connection from="-gneE6" to="gneE10" fromLane="0" toLane="0" via=":gneJ7_1_0" tl="gneJ7" linkIndex="5" dir="l" state="o"/>
    <connection from="gneE5" to="gneE10" fromLane="0" toLane="0" via=":gneJ7_4_0" tl="gneJ7" linkIndex="9" dir="r" state="O"/>
    <connection from="gneE5" to="gneE6" fromLane="0" toLane="0" via=":gneJ7_5_0" tl="gneJ7" linkIndex="10" dir="s" state="O"/>

    <connection from=":gneJ7_0" to="-gneE5" fromLane="0" toLane="0" dir="s" state="M"/>
    <connection from=":gneJ7_1" to="gneE10" fromLane="0" toLane="0" via=":gneJ7_6_0" dir="l" state="m"/>
    <connection from=":gneJ7_6" to="gneE10" fromLane="0" toLane="0" dir="l" state="M"/>
    <connection from=":gneJ7_2" to="gneE6" fromLane="0" toLane="0" dir="r" state="M"/>
    <connection from=":gneJ7_3" to="-gneE5" fromLane="0" toLane="0" dir="l" state="M"/>
    <connection from=":gneJ7_4" to="gneE10" fromLane="0" toLane="0" dir="r" state="M"/>
    <connection from=":gneJ7_5" to="gneE6" fromLane="0" toLane="0" dir="s" state="M"/>

</net>
