<?xml version="1.0" encoding="UTF-8"?>

<!-- generated on 2022-01-27 14:16:52 by Eclipse SUMO netedit Version 1.12.0
-->

<routes>

    
    <vType id="ego" vClass="emergency" maxSpeed="70" speedFactor="1.3" speedDev="0.1" sigma="0.8" tau="1" color = "0,0,1" >
        <param key="has.bluelight.device" value="true" />
    </vType>

    <!--
    <vType id="ego" vClass="passenger" maxSpeed="70" speedFactor="1.3" speedDev="0.1" sigma="0.8" tau="1" color = "0,0,1" />
    -->
    <!--
    <vType id="ego" vClass="passenger" maxSpeed="30" speedFactor="0.9" speedDev="0.1" sigma="0.1" tau="2" color = "0,0,1" />
    -->
    <vType id="cautious" vClass="passenger" maxSpeed="30" speedFactor="0.9" speedDev="0.1" sigma="0.1" tau="2" color = "0,1,0" />
    <vType id="normal" vClass="passenger"  maxSpeed="50" speedFactor="1" speedDev="0.1" sigma="0.4" tau = "1.5" color="1,1,0"/>
    <vType id="aggressive" vClass="passenger" maxSpeed="70" speedFactor="1.3" speedDev="0.1" sigma="0.8" tau="1" color = "1,0,0"/>
    
    <flow id="cautious2" type="cautious" begin="0" end="5000" number="43" from="-gneE10" to="-gneE5" departSpeed="random" departLane="random" />
    <flow id="aggressive2" type="aggressive" begin="0" end="5000" number="43" from="-gneE10" to="gneE6" departSpeed="random" departLane="random" />
    <flow id="normal2" type="normal" begin="0" end="5000" number="43" from="-gneE6" to="-gneE5" departSpeed="random" departLane="random" />
    
    <flow id="cautious3" type="cautious" begin="0" end="5000" number="43" from="gneE5" to="gneE10" departSpeed="random" departLane="random" />
    <flow id="aggressive3" type="aggressive" begin="0" end="5000" number="43" from="gneE5" to="gneE6" departSpeed="random" departLane="random" />
    <flow id="normal3" type="normal" begin="0" end="5000" number="100" from="gneE5" to="gneE6" departSpeed="random" departLane="random" />

    
    <flow id="ego" type="ego" begin="60" end="5000" number="1" from="gneE5" to="gneE6" departSpeed="random" departLane="random" />

</routes>
